test_cases/casesumatera.m
function mpc = hasil_matpower
%HASIL_MATPOWER

%% MATPOWER Case Format : Version 2
mpc.version = '2';

%%-----  Power Flow Data  -----%%
%% system MVA base
mpc.baseMVA = 100;

%% bus data
%	bus_i	type	Pd	Qd	Gs	Bs	area	Vm	Va	baseKV	zone	Vmax	Vmin
mpc.bus = [
	2	1	0	0	0	0	1	0.98367	-24.1279	150	1	1.1	0.9;
	3	1	0	0	0	0	1	0.99443	-34.0681	150	1	1.1	0.9;
	6	1	0	0	0	0	1	1.00077	-23.4418	275	1	1.1	0.9;
	7	1	0	0	0	0	1	0.99782	-15.6777	150	1	1.1	0.9;
	8	1	0	0	0	0	1	1.03287	-11.3636	150	1	1.1	0.9;
	9	1	0	0	0	0	1	0.9817	-31.6437	150	1	1.1	0.9;
	10	1	0	0	0	0	1	1.00562	-33.6169	150	1	1.1	0.9;
	11	1	0	0	0	0	1	1.0111	-28.513	150	1	1.1	0.9;
	12	1	0	0	0	0	1	0.98853	-25.9165	150	1	1.1	0.9;
	13	1	0	0	0	0	1	0.98243	-15.081	150	1	1.1	0.9;
	14	1	0	0	0	0	1	0.98345	-14.9865	275	1	1.1	0.9;
	15	1	0	0	0	0	1	0.99129	-21.5289	150	1	1.1	0.9;
	16	1	0	0	0	75	1	1.01676	-15.2779	150	1	1.1	0.9;
	17	1	0	0	0	0	1	1.01201	-22.6241	150	1	1.1	0.9;
	18	1	7.596	3.679	0	0	1	0.98481	-7.1204	20	1	1.1	0.9;
	19	1	22.266	10.784	0	0	1	0.99001	-6.4068	20	1	1.1	0.9;
	20	1	13.43	6.505	0	0	1	0.9899	-20.3994	20	1	1.1	0.9;
	21	1	10.26	4.969	0	0	1	0.97979	-17.0867	20	1	1.1	0.9;
	22	1	29.142	14.114	0	0	1	0.9944	-15.9964	20	1	1.1	0.9;
	23	1	35.73	17.305	0	0	1	0.98891	-16.0329	20	1	1.1	0.9;
	24	1	11.34	5.492	0	0	1	0.98946	-16.6574	20	1	1.1	0.9;
	25	1	20.25	9.808	0	0	1	0.99766	-15.8592	20	1	1.1	0.9;
	26	1	10.44	5.056	0	0	1	0.9713	-17.9704	20	1	1.1	0.9;
	27	1	12.042	5.832	0	0	1	0.9694	-17.8667	20	1	1.1	0.9;
	28	1	16.344	7.916	0	0	1	0.98228	-16.9154	20	1	1.1	0.9;
	29	1	8.946	4.333	0	0	1	0.96646	-16.5407	20	1	1.1	0.9;
	30	1	19.098	9.25	0	0	1	0.97863	-15.4402	20	1	1.1	0.9;
	31	1	18.936	9.171	0	0	1	1.00195	-23.5563	20	1	1.1	0.9;
	32	1	22.14	10.723	0	0	1	0.98044	-17.0662	20	1	1.1	0.9;
	33	1	38.232	18.517	0	0	1	0.99215	-10.4778	20	1	1.1	0.9;
	34	1	14.904	7.218	0	0	1	1.00409	-10.8329	20	1	1.1	0.9;
	35	1	1.8	0.872	0	0	1	1.01928	-9.6764	20	1	1.1	0.9;
	36	1	6.624	3.208	0	0	1	1.00148	-8.8035	20	1	1.1	0.9;
	37	1	22.5	10.897	0	0	1	1.01741	-13.57	20	1	1.1	0.9;
	38	1	23.76	11.507	0	0	1	1.02429	-9.1875	20	1	1.1	0.9;
	39	1	22.86	11.072	0	0	1	0.98842	-24.8571	20	1	1.1	0.9;
	40	1	11.268	5.457	0	0	1	0.9952	-7.6222	20	1	1.1	0.9;
	41	1	10.404	5.039	0	0	1	0.98664	-8.1064	20	1	1.1	0.9;
	42	1	48.96	23.712	0	0	1	1.01612	-25.1596	20	1	1.1	0.9;
	43	1	14.184	6.87	0	0	1	0.96357	-10.0277	20	1	1.1	0.9;
	44	1	5.868	2.842	0	0	1	0.99813	-9.3178	20	1	1.1	0.9;
	45	1	17.712	8.578	0	0	1	0.99767	-9.4168	20	1	1.1	0.9;
	46	1	17.712	8.578	0	0	1	1.01507	-15.4331	20	1	1.1	0.9;
	47	1	9.216	4.464	0	0	1	0.99095	-18.9123	20	1	1.1	0.9;
	48	1	15.444	7.48	0	0	1	0.98577	-19.4527	20	1	1.1	0.9;
	49	1	6.03	2.92	0	0	1	1.0027	-19.1877	20	1	1.1	0.9;
	50	1	9.792	4.742	0	0	1	0.99564	-20.9055	20	1	1.1	0.9;
	51	1	6.156	2.981	0	0	1	0.98663	-21.6748	20	1	1.1	0.9;
	52	1	18.216	8.822	0	0	1	0.98454	-12.9348	20	1	1.1	0.9;
	53	1	11.376	5.51	0	0	1	1.00315	-25.0244	20	1	1.1	0.9;
	54	1	31.284	15.152	0	0	1	0.97125	-18.2341	20	1	1.1	0.9;
	55	1	10.458	5.065	0	0	1	0.98765	-16.6005	20	1	1.1	0.9;
	56	1	12.78	6.19	0	0	1	0.99549	-16.402	20	1	1.1	0.9;
	57	1	8.622	4.176	0	0	1	0.98983	-16.8459	20	1	1.1	0.9;
	58	1	16.128	7.811	0	0	1	0.98976	-18.107	20	1	1.1	0.9;
	59	1	27.63	13.382	0	0	1	0.98994	-18.1504	20	1	1.1	0.9;
	60	1	20.862	10.104	0	0	1	0.98764	-23.9076	20	1	1.1	0.9;
	61	1	28.656	13.879	0	0	1	0.98715	-23.3075	20	1	1.1	0.9;
	62	1	5.256	2.546	0	0	1	1.00011	-23.7255	20	1	1.1	0.9;
	63	1	10.08	4.882	0	0	1	0.99882	-24.3064	20	1	1.1	0.9;
	64	1	8.028	3.888	0	0	1	1.00088	-25.2313	20	1	1.1	0.9;
	65	1	30.294	14.672	0	0	1	1.01359	-23.1054	20	1	1.1	0.9;
	66	1	10.476	5.074	0	0	1	0.99351	-24.6894	20	1	1.1	0.9;
	67	1	4.572	2.214	0	0	1	0.99992	-24.0724	20	1	1.1	0.9;
	68	1	30.528	14.785	0	0	1	0.98026	-24.8123	20	1	1.1	0.9;
	69	1	21.492	10.409	0	0	1	0.98599	-24.5451	20	1	1.1	0.9;
	70	1	27.594	13.364	0	0	1	0.99803	-23.5411	20	1	1.1	0.9;
	71	1	1.098	0.532	0	0	1	1.00163	-22.7224	20	1	1.1	0.9;
	72	1	10.17	4.926	0	0	1	0.97449	-25.9949	20	1	1.1	0.9;
	73	1	19.278	9.337	0	0	1	0.97877	-25.5904	20	1	1.1	0.9;
	74	1	30.798	14.916	0	0	1	1.00435	-25.4061	20	1	1.1	0.9;
	75	1	21.546	10.435	0	0	1	0.98515	-24.9835	20	1	1.1	0.9;
	76	1	6.732	3.26	0	0	1	0.97942	-25.574	20	1	1.1	0.9;
	77	1	14.202	6.878	0	0	1	0.97701	-25.7769	20	1	1.1	0.9;
	78	1	11.898	5.762	0	0	1	0.98808	-24.8427	20	1	1.1	0.9;
	79	1	30.672	14.855	0	0	1	0.95446	-27.2277	20	1	1.1	0.9;
	80	2	0	0	0	0	1	1	-23.5909	11	1	1.1	0.9;
	81	1	25.398	12.301	0	0	1	0.98047	-25.0976	20	1	1.1	0.9;
	82	2	0	0	0	0	1	1	-23.5081	11	1	1.1	0.9;
	83	1	25.398	12.301	0	0	1	0.95887	-27.3729	20	1	1.1	0.9;
	84	1	14.328	6.939	0	0	1	0.98614	-24.8056	20	1	1.1	0.9;
	85	1	19.143	9.271	0	0	1	0.98452	-27.2239	20	1	1.1	0.9;
	86	1	5.886	2.851	0	0	1	0.98147	-25.2531	20	1	1.1	0.9;
	87	2	0	0	0	0	1	1	-17.3643	11	1	1.1	0.9;
	88	1	3.348	1.622	0	0	1	0.98908	-18.0941	20	1	1.1	0.9;
	89	1	27.36	13.251	0	0	1	0.98967	-18.5045	20	1	1.1	0.9;
	90	1	5.67	2.746	0	0	1	0.99702	-18.2733	20	1	1.1	0.9;
	91	1	9.936	4.812	0	0	1	0.97904	-19.1213	20	1	1.1	0.9;
	92	1	19.062	9.232	0	0	1	0.99256	-18.687	20	1	1.1	0.9;
	93	1	9.792	4.742	0	0	1	0.98173	-18.7647	20	1	1.1	0.9;
	94	1	11.25	5.449	0	0	1	0.97163	-19.4385	20	1	1.1	0.9;
	95	1	17.514	8.482	0	0	1	0.98009	-22.1082	20	1	1.1	0.9;
	96	1	10.134	4.908	0	0	1	0.99569	-26.1988	20	1	1.1	0.9;
	97	1	16.182	7.837	0	0	1	0.99099	-18.1325	20	1	1.1	0.9;
	98	1	69.156	33.494	0	0	1	1.00604	-25.85	20	1	1.1	0.9;
	99	1	60.984	29.536	0	0	1	1.002	-26.1301	20	1	1.1	0.9;
	100	1	12.096	5.858	0	0	1	0.97934	2.4836	20	1	1.1	0.9;
	101	1	33.912	16.424	0	0	1	1.00332	-26.34	20	1	1.1	0.9;
	102	1	3.618	1.752	0	0	1	1.00909	-25.7888	20	1	1.1	0.9;
	103	1	42.426	20.548	0	0	1	1.00725	-26.2701	20	1	1.1	0.9;
	104	1	13.806	6.687	0	0	1	1.00659	-26.2403	20	1	1.1	0.9;
	105	1	63.468	30.739	0	0	1	0.99712	-27.2586	20	1	1.1	0.9;
	106	1	35.496	17.191	0	0	1	1.006	-26.5713	20	1	1.1	0.9;
	107	1	50.346	24.384	0	0	1	1.00553	-26.8059	20	1	1.1	0.9;
	108	1	16.326	7.907	0	0	1	1.00975	-28.4578	20	1	1.1	0.9;
	109	1	55.944	27.095	0	0	1	1.00218	-26.6194	20	1	1.1	0.9;
	110	1	40.248	19.493	0	0	1	1.00005	-26.7399	20	1	1.1	0.9;
	111	1	9.828	4.76	0	0	1	0.99017	3.1707	20	1	1.1	0.9;
	112	1	13.302	6.442	0	0	1	1.01163	-26.4325	20	1	1.1	0.9;
	113	1	37.224	18.028	0	0	1	0.99027	-31.0117	20	1	1.1	0.9;
	114	1	28.062	13.591	0	0	1	0.99151	-34.9224	20	1	1.1	0.9;
	115	1	127.059	61.537	0	0	1	0.98895	-35.158	275	1	1.1	0.9;
	116	1	19.206	9.302	0	0	1	0.9729	-36.8495	20	1	1.1	0.9;
	117	1	16.65	8.064	0	0	1	0.98111	-36.9347	20	1	1.1	0.9;
	118	1	7.434	3.6	0	0	1	0.98324	-30.0314	20	1	1.1	0.9;
	119	1	36.036	17.453	0	0	1	0.97812	-29.2853	20	1	1.1	0.9;
	120	1	6.534	3.165	0	0	1	0.99812	-7.947	20	1	1.1	0.9;
	121	1	8.262	4.001	0	0	1	0.99368	-24.8776	20	1	1.1	0.9;
	122	1	14.382	6.966	0	0	1	0.97708	-35.7174	20	1	1.1	0.9;
	123	1	28.26	13.687	0	0	1	0.97887	-31.4218	20	1	1.1	0.9;
	124	1	8.892	4.307	0	0	1	0.96784	-32.4175	20	1	1.1	0.9;
	125	1	7.236	3.505	0	0	1	0.96389	-28.0332	20	1	1.1	0.9;
	126	1	8.514	4.124	0	0	1	0.96676	-27.8727	20	1	1.1	0.9;
	127	1	9.72	4.708	0	0	1	0.99039	-22.6797	20	1	1.1	0.9;
	128	1	14.778	7.157	0	0	1	0.99108	-23.7441	20	1	1.1	0.9;
	129	1	2.808	1.36	0	0	1	0.98978	-23.7157	20	1	1.1	0.9;
	130	1	1.728	0.837	0	0	1	0.99217	-23.5373	20	1	1.1	0.9;
	131	1	14.274	6.913	0	0	1	1.0041	-8.726	20	1	1.1	0.9;
	132	1	12.546	6.076	0	0	1	0.99562	-23.0528	20	1	1.1	0.9;
	133	1	0.45	0.218	0	0	1	0.99849	-22.0397	20	1	1.1	0.9;
	134	1	4.698	2.275	0	0	1	0.9943	-24.3637	20	1	1.1	0.9;
	135	1	3.762	1.822	0	0	1	0.99938	-26.0271	20	1	1.1	0.9;
	136	1	1.296	0.628	0	0	1	1.00103	-25.8933	20	1	1.1	0.9;
	137	1	4.608	2.232	0	0	1	1.0077	-26.4544	20	1	1.1	0.9;
	138	1	8.298	4.019	0	0	1	0.9977	-27.3567	20	1	1.1	0.9;
	139	1	6.066	2.938	0	0	1	1.0007	-26.9501	20	1	1.1	0.9;
	140	1	15.462	7.489	0	0	1	0.99169	3.3391	20	1	1.1	0.9;
	141	1	5.22	2.528	0	0	1	0.99996	-26.9777	20	1	1.1	0.9;
	142	1	5.868	2.842	0	0	1	1.00616	-26.7805	20	1	1.1	0.9;
	143	1	13.932	6.748	0	0	1	0.97632	-31.852	20	1	1.1	0.9;
	144	1	11.304	5.475	0	0	1	0.99898	-34.2274	20	1	1.1	0.9;
	145	1	18.144	8.788	0	0	1	0.97348	-32.4162	20	1	1.1	0.9;
	146	1	27.864	13.495	0	0	1	0.99894	-31.2941	20	1	1.1	0.9;
	147	1	9.108	4.411	0	0	1	1.00699	-33.7193	20	1	1.1	0.9;
	148	1	47.718	23.111	0	0	1	0.98534	-35.7792	20	1	1.1	0.9;
	149	1	10.278	4.978	0	0	1	0.97809	-27.5619	20	1	1.1	0.9;
	150	1	12.582	6.094	0	0	1	0.98592	-27.1548	20	1	1.1	0.9;
	151	1	16.65	8.064	0	0	1	1.02223	-12.7904	20	1	1.1	0.9;
	152	1	13.392	6.486	0	0	1	0.98409	-26.8474	20	1	1.1	0.9;
	153	1	43.218	20.931	0	0	1	0.98396	-26.941	20	1	1.1	0.9;
	154	1	21.42	10.374	0	0	1	0.99396	-24.3322	20	1	1.1	0.9;
	155	1	82.224	39.823	0	0	1	0.98064	-27.1934	20	1	1.1	0.9;
	156	1	22.734	11.011	0	0	1	0.9766	-30.3477	20	1	1.1	0.9;
	157	1	22.896	11.089	0	0	1	0.98186	-26.5408	20	1	1.1	0.9;
	158	1	11.268	5.457	0	0	1	0.98658	-24.96	20	1	1.1	0.9;
	159	1	17.766	8.604	0	0	1	0.98544	-22.5307	20	1	1.1	0.9;
	160	1	8.604	4.167	0	0	1	0.98824	-21.8147	20	1	1.1	0.9;
	161	1	18.918	9.162	0	0	1	0.98333	-22.627	20	1	1.1	0.9;
	162	1	11.448	5.545	0	0	1	0.99215	-18.1506	20	1	1.1	0.9;
	163	1	8.172	3.958	0	0	1	0.98863	-22.1944	20	1	1.1	0.9;
	164	1	7.056	3.417	0	0	1	0.99026	-21.6005	20	1	1.1	0.9;
	165	1	8.964	4.341	0	0	1	0.98934	-21.7696	20	1	1.1	0.9;
	166	1	11.898	5.762	0	0	1	0.9757	-23.1013	20	1	1.1	0.9;
	167	1	18.648	9.032	0	0	1	0.98686	-21.9261	20	1	1.1	0.9;
	168	1	23.004	11.141	0	0	1	0.98706	-21.9674	20	1	1.1	0.9;
	169	1	7.974	3.862	0	0	1	0.99331	-20.8676	20	1	1.1	0.9;
	170	1	14.742	7.14	0	0	1	0.98701	-21.5849	20	1	1.1	0.9;
	171	1	8.004	3.876	0	0	1	0.98874	-20.2364	20	1	1.1	0.9;
	172	1	10.242	4.96	0	0	1	0.97898	-17.9593	20	1	1.1	0.9;
	173	1	13.734	6.652	0	0	1	0.99034	-20.436	20	1	1.1	0.9;
	174	1	3.024	1.465	0	0	1	0.99276	-14.8951	20	1	1.1	0.9;
	175	1	7.074	3.426	0	0	1	0.98573	-22.2594	20	1	1.1	0.9;
	176	1	42.872	20.764	0	0	1	0.98301	-22.2736	20	1	1.1	0.9;
	177	1	15.012	7.271	0	0	1	0.97556	-23.0248	20	1	1.1	0.9;
	178	1	5.526	2.676	0	0	1	0.97016	-23.4837	20	1	1.1	0.9;
	179	2	0	0	0	0	1	1	-21.1184	11	1	1.1	0.9;
	180	1	5.418	2.624	0	0	1	0.98879	-21.9068	20	1	1.1	0.9;
	181	1	7.884	3.818	0	0	1	0.97645	-22.8631	20	1	1.1	0.9;
	182	1	1.944	0.942	0	0	1	0.98621	-22.0717	20	1	1.1	0.9;
	183	1	7.866	3.81	0	0	1	0.98323	-16.5951	20	1	1.1	0.9;
	184	1	8.658	4.193	0	0	1	0.97998	-7.6339	20	1	1.1	0.9;
	185	2	0	0	0	0	1	1	-14.9829	11	1	1.1	0.9;
	186	2	0	0	0	0	1	1	-13.2185	11	1	1.1	0.9;
	187	2	0	0	0	0	1	1	-10.5041	11	1	1.1	0.9;
	188	2	0	0	0	0	1	1	-12.9342	11	1	1.1	0.9;
	189	2	0	0	0	0	1	1	-7.7268	11	1	1.1	0.9;
	190	2	0	0	0	0	1	1	-7.8321	11	1	1.1	0.9;
	191	2	0	0	0	0	1	1.047	-7.7989	11	1	1.1	0.9;
	192	2	0	0	0	0	1	1	-12.2417	11	1	1.1	0.9;
	193	2	0	0	0	0	1	1	-5.204	11	1	1.1	0.9;
	194	2	0	0	0	0	1	1.037	-5.1292	11	1	1.1	0.9;
	195	1	0.864	0.418	0	0	1	1.00076	-5.9224	20	1	1.1	0.9;
	196	2	0	0	0	0	1	1	-6.7594	11	1	1.1	0.9;
	197	2	0	0	0	0	1	1	-6.4939	11	1	1.1	0.9;
	198	2	0	0	0	0	1	1	-8.4142	11	1	1.1	0.9;
	199	2	0	0	0	0	1	1	-8.6335	11	1	1.1	0.9;
	200	2	0	0	0	0	1	1	-8.6095	11	1	1.1	0.9;
	201	1	5.998	2.905	0	0	1	1.00232	-8.8139	20	1	1.1	0.9;
	202	1	11.484	5.562	0	0	1	0.98337	-10.864	20	1	1.1	0.9;
	203	2	0	0	0	0	1	1	-19.9612	11	1	1.1	0.9;
...
];

%% generator data
%	bus	Pg	Qg	Qmax	Qmin	Vg	mBase	status	Pmax	Pmin	Pc1	Pc2	Qc1min	Qc1max	Qc2min	Qc2max	ramp_agc	ramp_10	ramp_30	ramp_q	apf
mpc.gen = [
	80	80	38.596	235.3	-235.3	1	235.3	1	200	0	0	0	0	0	0	0	0	0	0	0	0;
	82	80	34.184	235.3	-235.3	1	235.3	1	200	0	0	0	0	0	0	0	0	0	0	0	0;
	87	24	26.998	70.589	-70.589	1	70.589	1	60	0	0	0	0	0	0	0	0	0	0	0	0;
	179	40	28.855	263.53	-263.53	1	263.53	1	224	0	0	0	0	0	0	0	0	0	0	0	0;
	185	20	9.524	58.83	-58.83	1	58.83	1	50	0	0	0	0	0	0	0	0	0	0	0	0;
	186	2	0.163	5.9	-5.9	1	5.9	1	5.015	0	0	0	0	0	0	0	0	0	0	0	0;
	187	30	0.806	41.7	-41.7	1	41.7	1	35.4	0	0	0	0	0	0	0	0	0	0	0	0;
	188	100	-15.202	352.942	-352.942	1	352.942	1	299.993	0	0	0	0	0	0	0	0	0	0	0	0;
	189	5	-3.38	24.8	-24.8	1	24.8	1	21	0	0	0	0	0	0	0	0	0	0	0	0;
	190	7.056	-4.381	20.76	-20.76	1	20.76	1	17.64	0	0	0	0	0	0	0	0	0	0	0	0;
	191	54	45.874	253.5	-253.5	1.047	253.5	1	215.475	0	0	0	0	0	0	0	0	0	0	0	0;
	192	56	3.205	164.71	-164.71	1	164.71	1	140.004	0	0	0	0	0	0	0	0	0	0	0	0;
	193	20	-4.597	64.71	-64.71	1	64.71	1	55	0	0	0	0	0	0	0	0	0	0	0	0;
	194	36.48	65.865	107.3	-107.3	1.037	107.3	1	91.2	0	0	0	0	0	0	0	0	0	0	0	0;
	196	50	5.5	317.65	-317.65	1	317.65	1	270	0	0	0	0	0	0	0	0	0	0	0	0;
	197	50	2.262	317.65	-317.65	1	317.65	1	270	0	0	0	0	0	0	0	0	0	0	0	0;
	198	90.8	2.036	267.06	-267.06	1	267.06	1	227	0	0	0	0	0	0	0	0	0	0	0	0;
	199	32	-0.73	95	-95	1	95	1	80	0	0	0	0	0	0	0	0	0	0	0	0;
	200	104	-12.654	317.65	-317.65	1	317.65	1	270	0	0	0	0	0	0	0	0	0	0	0	0;
	203	36	2.199	105.89	-105.89	1	105.89	1	90	0	0	0	0	0	0	0	0	0	0	0	0;
	204	15	20.918	35.3	-35.3	1.009	35.3	1	30	0	0	0	0	0	0	0	0	0	0	0	0;
	205	24	1.889	70.59	-70.59	1	70.59	1	60	0	0	0	0	0	0	0	0	0	0	0	0;
	207	11.84	4.79	34.83	-34.83	1.017	34.83	1	29.6	0	0	0	0	0	0	0	0	0	0	0	0;
	209	27.5	7.464	64.71	-64.71	1.026	64.71	1	55	0	0	0	0	0	0	0	0	0	0	0	0;
	210	27.5	36.837	64.71	-64.71	1.039	64.71	1	55	0	0	0	0	0	0	0	0	0	0	0	0;
	211	5	0.976	14.71	-14.71	1.005	14.71	1	12.5	0	0	0	0	0	0	0	0	0	0	0	0;
	213	22.4	-6.482	65.9	-65.9	1	65.9	1	56	0	0	0	0	0	0	0	0	0	0	0	0;
	214	12	8.635	21.4	-21.4	1	21.4	1	18.18	0	0	0	0	0	0	0	0	0	0	0	0;
	223	32	-10.576	94.2	-94.2	1	94.2	1	80	0	0	0	0	0	0	0	0	0	0	0	0;
	225	50	30.497	235.296	-235.296	1.049	235.296	1	200.002	0	0	0	0	0	0	0	0	0	0	0	0;
	227	27.54	30.746	81	-81	1.045	81	1	68.848	0	0	0	0	0	0	0	0	0	0	0	0;
	228	100	117.029	706	-706	1.05	706	1	600	0	0	0	0	0	0	0	0	0	0	0	0;
	229	4	4.706	9.5	-9.5	1.04	9.5	1	8.143	0	0	0	0	0	0	0	0	0	0	0	0;
	230	72	119.602	211.8	-211.8	1.05	211.8	1	180	0	0	0	0	0	0	0	0	0	0	0	0;
	235	250	278.142	962.36	-962.36	1.05	962.36	1	818	0	0	0	0	0	0	0	0	0	0	0	0;
	237	200	17.096	258.83	-258.83	1	258.83	1	220	0	0	0	0	0	0	0	0	0	0	0	0;
	238	104	-71.828	305.9	-305.9	1	305.9	1	260	0	0	0	0	0	0	0	0	0	0	0	0;
	239	34	41.82	106	-106	1.022	106	1	90	0	0	0	0	0	0	0	0	0	0	0	0;
	240	30	35.447	88.25	-88.25	1.022	88.25	1	75	0	0	0	0	0	0	0	0	0	0	0	0;
	241	26	-17.957	76.5	-76.5	1	76.5	1	65	0	0	0	0	0	0	0	0	0	0	0	0;
	242	25	3.57	58.62	-58.62	1	58.62	1	49.82	0	0	0	0	0	0	0	0	0	0	0	0;
	243	220	133.49	470	-470	1.05	470	1	400	0	0	0	0	0	0	0	0	0	0	0	0;
	245	25	11.42	40	-40	1.018	40	1	32.7	0	0	0	0	0	0	0	0	0	0	0	0;
	246	13	-7.496	30	-30	1	30	1	24.84	0	0	0	0	0	0	0	0	0	0	0	0;
	247	18	13.214	53	-53	1.025	53	1	45	0	0	0	0	0	0	0	0	0	0	0	0;
	248	4	-0.862	13	-13	1.013	13	1	10	0	0	0	0	0	0	0	0	0	0	0	0;
	250	72	-11.389	212.5	-212.5	1	212.5	1	180	0	0	0	0	0	0	0	0	0	0	0	0;
	251	10	22.056	49.89	-49.89	1.05	49.89	1	42.4	0	0	0	0	0	0	0	0	0	0	0	0;
	252	18	3.628	50	-50	1	50	1	39	0	0	0	0	0	0	0	0	0	0	0	0;
	254	130.8	-3.569	256.47	-256.47	1	256.47	1	217	0	0	0	0	0	0	0	0	0	0	0	0;
	255	65.4	-1.792	128	-128	1	128	1	108	0	0	0	0	0	0	0	0	0	0	0	0;
	256	13.2	1.368	38.83	-38.83	1	38.83	1	33	0	0	0	0	0	0	0	0	0	0	0	0;
	257	65.4	-2.943	128	-128	1	128	1	108	0	0	0	0	0	0	0	0	0	0	0	0;
	258	6.8	0.732	20	-20	1	20	1	17	0	0	0	0	0	0	0	0	0	0	0	0;
	260	32.8	60.921	96.48	-96.48	1.05	96.48	1	82	0	0	0	0	0	0	0	0	0	0	0	0;
	261	70	21.858	205.89	-205.89	1	205.89	1	175	0	0	0	0	0	0	0	0	0	0	0	0;
	263	38	22.666	111.77	-111.77	1.018	111.77	1	95	0	0	0	0	0	0	0	0	0	0	0	0;
	264	30	18.298	88.236	-88.236	1.038	88.236	1	75	0	0	0	0	0	0	0	0	0	0	0	0;
	265	8	6.386	23.53	-23.53	1.02	23.53	1	20	0	0	0	0	0	0	0	0	0	0	0	0;
	266	8	8.009	23.53	-23.53	1.022	23.53	1	20	0	0	0	0	0	0	0	0	0	0	0	0;
	268	88	58.967	258.85	-258.85	1	258.85	1	220	0	0	0	0	0	0	0	0	0	0	0	0;
	272	17.28	14.675	50.83	-50.83	1	50.83	1	43.2	0	0	0	0	0	0	0	0	0	0	0	0;
	274	45.6	9.183	134.13	-134.13	1	134.13	1	114	0	0	0	0	0	0	0	0	0	0	0	0;
	275	2	1.239	1.239	1.239	1	12.353	1	10.5	0	0	0	0	0	0	0	0	0	0	0	0;
	276	80	25.974	235.3	-235.3	1	235.3	1	200	0	0	0	0	0	0	0	0	0	0	0	0;
	277	25.62	21.507	75.36	-75.36	1	75.36	1	64.05	0	0	0	0	0	0	0	0	0	0	0	0;
	278	32	1.832	94.118	-94.118	1	94.118	1	80	0	0	0	0	0	0	0	0	0	0	0	0;
	279	27.2	23.015	80	-80	1	80	1	68	0	0	0	0	0	0	0	0	0	0	0	0;
	280	60	65.164	176.475	-176.475	1.01	176.475	1	150	0	0	0	0	0	0	0	0	0	0	0	0;
	301	252.361	-56.932	1411.8	-1411.8	1	1411.8	1	1200	0	0	0	0	0	0	0	0	0	0	0	0;
];

%% branch data
%	fbus	tbus	r	x	b	rateA	rateB	rateC	ratio	angle	status	angmin	angmax
mpc.branch = [
	2	345	0.0160377	0.0689556	0.00128	259.81	259.81	259.81	0	0	1	-360	360;
	2	509	0.0158254	0.0503869	1e-05	259.81	259.81	259.81	0	0	1	-360	360;
	3	325	0.0351935	0.112054	2e-05	259.81	259.81	259.81	0	0	1	-360	360;
	3	341	0.0258489	0.0823011	2e-05	259.81	259.81	259.81	0	0	1	-360	360;
	6	470	0.000402712	0.00338778	1e-05	476.31	476.31	476.31	0	0	1	-360	360;
	6	470	0.000402712	0.00338778	1e-05	476.31	476.31	476.31	0	0	1	-360	360;
	7	378	0.0115469	0.0679709	2e-05	259.81	259.81	259.81	0	0	1	-360	360;
	7	385	0.0110551	0.0650762	2e-05	259.81	259.81	259.81	0	0	1	-360	360;
	7	386	0.0211798	0.124675	4e-05	259.81	259.81	259.81	0	0	1	-360	360;
	7	394	0.00198206	0.0148426	0	259.81	259.81	259.81	0	0	1	-360	360;
	7	394	0.00198206	0.0148426	0	259.81	259.81	259.81	0	0	1	-360	360;
	7	420	0.00556837	0.0327783	1e-05	259.81	259.81	259.81	0	0	1	-360	360;
	8	299	0.027954	0.0890036	2e-05	259.81	259.81	259.81	0	0	1	-360	360;
	8	299	0.020702	0.0890101	0.00165	259.81	259.81	259.81	0	0	1	-360	360;
	8	369	0.00731751	0.0305278	1e-05	259.81	259.81	259.81	0	0	1	-360	360;
	8	369	0.00731751	0.0305278	1e-05	259.81	259.81	259.81	0	0	1	-360	360;
	9	308	0.0628165	0.194068	4e-05	259.81	259.81	259.81	0	0	1	-360	360;
	9	308	0.0628165	0.194068	4e-05	259.81	259.81	259.81	0	0	1	-360	360;
	9	344	0.0254666	0.0786775	2e-05	259.81	259.81	259.81	0	0	1	-360	360;
	9	344	0.0254666	0.0786775	2e-05	259.81	259.81	259.81	0	0	1	-360	360;
	10	307	0.0604718	0.186824	4e-05	259.81	259.81	259.81	0	0	1	-360	360;
	10	307	0.0604718	0.186824	4e-05	259.81	259.81	259.81	0	0	1	-360	360;
	11	308	0.0174192	0.0726711	1e-05	259.81	259.81	259.81	0	0	1	-360	360;
	11	308	0.0174192	0.0726711	1e-05	259.81	259.81	259.81	0	0	1	-360	360;
	11	313	0.0279207	0.134233	3e-05	259.81	259.81	259.81	0	0	1	-360	360;
	11	397	0.0230433	0.110785	2e-05	259.81	259.81	259.81	0	0	1	-360	360;
	12	313	0.01463	0.0778275	2e-05	259.81	259.81	259.81	0	0	1	-360	360;
	12	348	0.00571583	0.0313797	1e-05	259.81	259.81	259.81	0	0	1	-360	360;
	12	415	0.0684701	0.211534	4e-05	259.81	259.81	259.81	0	0	1	-360	360;
	12	415	0.0684701	0.211534	4e-05	259.81	259.81	259.81	0	0	1	-360	360;
	13	490	0.0281051	0.165441	5e-05	259.81	259.81	259.81	0	0	1	-360	360;
	13	490	0.0281051	0.165441	5e-05	259.81	259.81	259.81	0	0	1	-360	360;
	14	363	0.00922799	0.0776297	0.00022	476.31	476.31	476.31	0	0	1	-360	360;
	14	363	0.00922799	0.0776297	0.00022	476.31	476.31	476.31	0	0	1	-360	360;
	14	380	0.003761	0.0316391	9e-05	476.31	476.31	476.31	0	0	1	-360	360;
	14	380	0.003761	0.0316391	9e-05	476.31	476.31	476.31	0	0	1	-360	360;
	15	316	0.0133078	0.0559501	1e-05	259.81	259.81	259.81	0	0	1	-360	360;
	15	316	0.0133078	0.0559501	1e-05	259.81	259.81	259.81	0	0	1	-360	360;
	15	406	0.0124024	0.0394885	1e-05	259.81	259.81	259.81	0	0	1	-360	360;
	15	418	0.0106552	0.0447978	1e-05	259.81	259.81	259.81	0	0	1	-360	360;
	15	418	0.0106552	0.0447978	1e-05	259.81	259.81	259.81	0	0	1	-360	360;
	16	289	0.0313825	0.130924	3e-05	259.81	259.81	259.81	0	0	1	-360	360;
	16	289	0.0313825	0.130924	3e-05	259.81	259.81	259.81	0	0	1	-360	360;
	16	317	0.000935602	0.0029789	0	259.81	259.81	259.81	0	0	1	-360	360;
	16	374	0.0214504	0.0662696	1e-05	259.81	259.81	259.81	0	0	1	-360	360;
	16	374	0.0214504	0.0662696	1e-05	259.81	259.81	259.81	0	0	1	-360	360;
	17	409	0.00796117	0.0356801	1e-05	259.81	259.81	259.81	0	0	1	-360	360;
	17	522	0.0101347	0.0454215	1e-05	259.81	259.81	259.81	0	0	1	-360	360;
	226	348	0.000316667	0.00168458	0	259.81	259.81	259.81	0	0	1	-360	360;
	281	290	0.00877982	0.0271247	1e-05	259.81	259.81	259.81	0	0	1	-360	360;
	281	290	0.00877982	0.0271247	1e-05	259.81	259.81	259.81	0	0	1	-360	360;
	282	460	0.0222034	0.0685961	1e-05	259.81	259.81	259.81	0	0	1	-360	360;
	282	460	0.0222034	0.0685961	1e-05	259.81	259.81	259.81	0	0	1	-360	360;
	282	500	0.00299507	0.0095361	0	259.81	259.81	259.81	0	0	1	-360	360;
	282	501	0.0117135	0.0679004	2e-05	259.81	259.81	259.81	0	0	1	-360	360;
	282	501	0.0117135	0.0679004	2e-05	259.81	259.81	259.81	0	0	1	-360	360;
	283	489	0.00317789	0.0267337	8e-05	476.31	476.31	476.31	0	0	1	-360	360;
	283	489	0.00317789	0.0267337	8e-05	476.31	476.31	476.31	0	0	1	-360	360;
	284	290	0.0144491	0.0602802	1e-05	259.81	259.81	259.81	0	0	1	-360	360;
	284	290	0.0144491	0.0602802	1e-05	259.81	259.81	259.81	0	0	1	-360	360;
	284	374	0.0109974	0.0458799	1e-05	259.81	259.81	259.81	0	0	1	-360	360;
	284	374	0.0109974	0.0458799	1e-05	259.81	259.81	259.81	0	0	1	-360	360;
	285	347	0.000353449	0.00172528	0	121.24	121.24	121.24	0	0	1	-360	360;
	285	458	0.0185692	0.028743	0	121.24	121.24	121.24	0	0	1	-360	360;
	285	458	0.0185692	0.028743	0	121.24	121.24	121.24	0	0	1	-360	360;
	286	458	0.050458	0.0995763	0	121.24	121.24	121.24	0	0	1	-360	360;
	286	458	0.050458	0.0995763	0	121.24	121.24	121.24	0	0	1	-360	360;
	286	486	0.0642662	0.0994765	0	121.24	121.24	121.24	0	0	1	-360	360;
	286	486	0.0642662	0.0994765	0	121.24	121.24	121.24	0	0	1	-360	360;
	287	333	0.00330552	0.019458	1e-05	259.81	259.81	259.81	0	0	1	-360	360;
	287	333	0.00330552	0.019458	1e-05	259.81	259.81	259.81	0	0	1	-360	360;
	287	372	0.002018	0.011879	0	259.81	259.81	259.81	0	0	1	-360	360;
	287	372	0.002018	0.011879	0	259.81	259.81	259.81	0	0	1	-360	360;
	287	431	5.38258e-05	0.000403074	0	259.81	259.81	259.81	0	0	1	-360	360;
	287	431	5.38258e-05	0.000403074	0	259.81	259.81	259.81	0	0	1	-360	360;
	288	352	0.0630276	0.19472	4e-05	259.81	259.81	259.81	0	0	1	-360	360;
	288	352	0.0630276	0.19472	4e-05	259.81	259.81	259.81	0	0	1	-360	360;
	288	451	0.028764	0.0915829	2e-05	259.81	259.81	259.81	0	0	1	-360	360;
	288	466	0.0364999	0.116213	2e-05	259.81	259.81	259.81	0	0	1	-360	360;
	288	518	0.029848	0.0922134	2e-05	259.81	259.81	259.81	0	0	1	-360	360;
	288	518	0.029848	0.0922134	2e-05	259.81	259.81	259.81	0	0	1	-360	360;
	288	526	0.012488	0.0385809	1e-05	259.81	259.81	259.81	0	0	1	-360	360;
	288	526	0.012488	0.0385809	1e-05	259.81	259.81	259.81	0	0	1	-360	360;
	289	323	0.00648402	0.0322101	1e-05	259.81	259.81	259.81	0	0	1	-360	360;
	289	323	0.00648402	0.0322101	1e-05	259.81	259.81	259.81	0	0	1	-360	360;
	289	356	0.019012	0.079316	2e-05	259.81	259.81	259.81	0	0	1	-360	360;
	289	356	0.019012	0.079316	2e-05	259.81	259.81	259.81	0	0	1	-360	360;
	290	345	0.0145632	0.0607561	1e-05	259.81	259.81	259.81	0	0	1	-360	360;
	290	345	0.0145632	0.0607561	1e-05	259.81	259.81	259.81	0	0	1	-360	360;
	290	360	0.0344404	0.106401	2e-05	259.81	259.81	259.81	0	0	1	-360	360;
	290	360	0.0344404	0.106401	2e-05	259.81	259.81	259.81	0	0	1	-360	360;
	291	335	0.0295191	0.0444131	0	121.24	121.24	121.24	0	0	1	-360	360;
	291	335	0.0295191	0.0444131	0	121.24	121.24	121.24	0	0	1	-360	360;
	291	502	0.0379607	0.0571139	0	121.24	121.24	121.24	0	0	1	-360	360;
	291	502	0.0379607	0.0571139	0	121.24	121.24	121.24	0	0	1	-360	360;
	292	335	0.0241037	0.0362653	0	121.24	121.24	121.24	0	0	1	-360	360;
	292	335	0.0241037	0.0362653	0	121.24	121.24	121.24	0	0	1	-360	360;
	293	327	0.00483489	0.0207551	1e-05	259.81	259.81	259.81	0	0	1	-360	360;
	293	327	0.00483489	0.0207551	1e-05	259.81	259.81	259.81	0	0	1	-360	360;
	293	514	0.00385651	0.0165551	0	259.81	259.81	259.81	0	0	1	-360	360;
	293	514	0.00386221	0.0165796	0	259.81	259.81	259.81	0	0	1	-360	360;
	294	302	0.0514638	0.163857	3e-05	259.81	259.81	259.81	0	0	1	-360	360;
	294	329	0.0187805	0.0597959	1e-05	259.81	259.81	259.81	0	0	1	-360	360;
	294	523	0.00827209	0.0255561	0	259.81	259.81	259.81	0	0	1	-360	360;
	294	523	0.00827209	0.0255561	0	259.81	259.81	259.81	0	0	1	-360	360;
	295	297	0.00552592	0.0408952	1e-05	259.81	259.81	259.81	0	0	1	-360	360;
	295	297	0.00552592	0.0408952	1e-05	259.81	259.81	259.81	0	0	1	-360	360;
	295	459	0.00431718	0.0319498	1e-05	259.81	259.81	259.81	0	0	1	-360	360;
	295	459	0.00431718	0.0319498	1e-05	259.81	259.81	259.81	0	0	1	-360	360;
	296	366	0.00168294	0.00535838	0	259.81	259.81	259.81	0	0	1	-360	360;
	296	367	0.00350737	0.0111672	0	259.81	259.81	259.81	0	0	1	-360	360;
	296	447	0.00108073	0.0064367	0	259.81	259.81	259.81	0	0	1	-360	360;
	296	447	0.00108073	0.0064367	0	259.81	259.81	259.81	0	0	1	-360	360;
	297	444	0.0232778	0.0909205	2e-05	259.81	259.81	259.81	0	0	1	-360	360;
	297	446	0.00294052	0.0170455	0	259.81	259.81	259.81	0	0	1	-360	360;
	297	446	0.00294052	0.0170455	0	259.81	259.81	259.81	0	0	1	-360	360;
	297	495	0.0103401	0.0403873	1e-05	259.81	259.81	259.81	0	0	1	-360	360;
	298	311	0.00284267	0.0210375	7e-05	476.31	476.31	476.31	0	0	1	-360	360;
	298	311	0.00284267	0.0210375	7e-05	476.31	476.31	476.31	0	0	1	-360	360;
	298	445	0.00333394	0.0246732	8e-05	476.31	476.31	476.31	0	0	1	-360	360;
	298	445	0.00333394	0.0246732	8e-05	476.31	476.31	476.31	0	0	1	-360	360;
	299	302	0.0204806	0.0652088	1e-05	259.81	259.81	259.81	0	0	1	-360	360;
	299	448	0.0359864	0.114579	2e-05	259.81	259.81	259.81	0	0	1	-360	360;
	299	494	0.000730226	0.00232499	0	259.81	259.81	259.81	0	0	1	-360	360;
	299	519	0.0419366	0.133524	2e-05	259.81	259.81	259.81	0	0	1	-360	360;
	300	402	0.059947	0.185202	4e-05	259.81	259.81	259.81	0	0	1	-360	360;
	300	402	0.059947	0.185202	4e-05	259.81	259.81	259.81	0	0	1	-360	360;
	302	329	0.0336018	0.106986	2e-05	259.81	259.81	259.81	0	0	1	-360	360;
	302	402	0.0273878	0.205093	6e-05	259.81	259.81	259.81	0	0	1	-360	360;
	302	402	0.0273878	0.205093	6e-05	259.81	259.81	259.81	0	0	1	-360	360;
	302	494	0.036015	0.114669	2e-05	259.81	259.81	259.81	0	0	1	-360	360;
	303	459	0.00232189	0.00739275	0	259.81	259.81	259.81	0	0	1	-360	360;
	303	520	0.00211651	0.00948573	0	259.81	259.81	259.81	0	0	1	-360	360;
	304	305	0.00863696	0.0384033	1e-05	259.81	259.81	259.81	0	0	1	-360	360;
	304	305	0.00863696	0.0384033	1e-05	259.81	259.81	259.81	0	0	1	-360	360;
	305	376	0.019563	0.0869847	2e-05	259.81	259.81	259.81	0	0	1	-360	360;
	305	376	0.019563	0.0869847	2e-05	259.81	259.81	259.81	0	0	1	-360	360;
	306	466	0.0343092	0.109238	2e-05	259.81	259.81	259.81	0	0	1	-360	360;
	306	507	0.0511729	0.162931	3e-05	259.81	259.81	259.81	0	0	1	-360	360;
	307	308	0.0239467	0.0999029	2e-05	259.81	259.81	259.81	0	0	1	-360	360;
	307	308	0.0239467	0.0999029	2e-05	259.81	259.81	259.81	0	0	1	-360	360;
	307	337	0.0175711	0.0542847	1e-05	259.81	259.81	259.81	0	0	1	-360	360;
	307	337	0.0175711	0.0542847	1e-05	259.81	259.81	259.81	0	0	1	-360	360;
	309	407	0.027954	0.086362	2e-05	259.81	259.81	259.81	0	0	1	-360	360;
	309	449	0.0333217	0.14327	0.00266	259.81	259.81	259.81	0	0	1	-360	360;
	309	465	0.038024	0.158632	3e-05	259.81	259.81	259.81	0	0	1	-360	360;
	309	465	0.038024	0.158632	3e-05	259.81	259.81	259.81	0	0	1	-360	360;
	310	391	0.00399656	0.029577	1e-05	259.81	259.81	259.81	0	0	1	-360	360;
	310	391	0.00399656	0.029577	1e-05	259.81	259.81	259.81	0	0	1	-360	360;
	310	393	0.0207087	0.0639783	1e-05	259.81	259.81	259.81	0	0	1	-360	360;
	310	393	0.0207087	0.0639783	1e-05	259.81	259.81	259.81	0	0	1	-360	360;
	310	520	0.00128232	0.00960264	0	259.81	259.81	259.81	0	0	1	-360	360;
	310	520	0.00128232	0.00960264	0	259.81	259.81	259.81	0	0	1	-360	360;
	311	470	0.0199862	0.0833801	0.00018	476.31	476.31	476.31	0	0	1	-360	360;
	311	470	0.0199862	0.0833801	0.00018	476.31	476.31	476.31	0	0	1	-360	360;
	312	334	0.00255056	0.0150139	0	259.81	259.81	259.81	0	0	1	-360	360;
	312	334	0.00255056	0.0150139	0	259.81	259.81	259.81	0	0	1	-360	360;
	312	342	0.00174027	0.00849472	0	259.81	259.81	259.81	0	0	1	-360	360;
	312	342	0.00174027	0.00849472	0	259.81	259.81	259.81	0	0	1	-360	360;
	312	501	0.00169765	0.00999324	0	259.81	259.81	259.81	0	0	1	-360	360;
	312	501	0.00169765	0.00999324	0	259.81	259.81	259.81	0	0	1	-360	360;
	313	314	0.0041988	0.0129719	0	259.81	259.81	259.81	0	0	1	-360	360;
	313	314	0.0041988	0.0129719	0	259.81	259.81	259.81	0	0	1	-360	360;
	313	348	0.0202572	0.107762	2e-05	259.81	259.81	259.81	0	0	1	-360	360;
	313	397	0.00494976	0.0237967	0	259.81	259.81	259.81	0	0	1	-360	360;
	313	416	0.00885114	0.0379959	1e-05	259.81	259.81	259.81	0	0	1	-360	360;
	313	416	0.00885114	0.0379959	1e-05	259.81	259.81	259.81	0	0	1	-360	360;
	313	513	0.00844133	0.0352163	1e-05	259.81	259.81	259.81	0	0	1	-360	360;
	313	513	0.00844133	0.0352163	1e-05	259.81	259.81	259.81	0	0	1	-360	360;
	315	518	0.00452398	0.0139765	0	259.81	259.81	259.81	0	0	1	-360	360;
	315	518	0.00452398	0.0139765	0	259.81	259.81	259.81	0	0	1	-360	360;
	316	327	0.0364029	0.115904	2e-05	259.81	259.81	259.81	0	0	1	-360	360;
	316	338	0.0153074	0.0901073	3e-05	259.81	259.81	259.81	0	0	1	-360	360;
	316	338	0.0153074	0.0901073	3e-05	259.81	259.81	259.81	0	0	1	-360	360;
	316	453	0.00131212	0.00417772	0	259.81	259.81	259.81	0	0	1	-360	360;
	318	417	0.00388503	0.0120025	0	259.81	259.81	259.81	0	0	1	-360	360;
	318	417	0.00388503	0.0120025	0	259.81	259.81	259.81	0	0	1	-360	360;
	319	395	0.00360557	0.0303315	9e-05	476.31	476.31	476.31	0	0	1	-360	360;
	319	395	0.00360557	0.0303315	9e-05	476.31	476.31	476.31	0	0	1	-360	360;
	319	489	0.0019999	0.016824	5e-05	476.31	476.31	476.31	0	0	1	-360	360;
	319	489	0.0019999	0.016824	5e-05	476.31	476.31	476.31	0	0	1	-360	360;
	320	446	0.00546095	0.0221564	0	259.81	259.81	259.81	0	0	1	-360	360;
	320	446	0.00546095	0.0221564	0	259.81	259.81	259.81	0	0	1	-360	360;
	321	332	0.0140272	0.105042	3e-05	259.81	259.81	259.81	0	0	1	-360	360;
	321	332	0.0140272	0.105042	3e-05	259.81	259.81	259.81	0	0	1	-360	360;
	321	376	0.0183298	0.0786857	2e-05	259.81	259.81	259.81	0	0	1	-360	360;
	321	376	0.0183298	0.0786857	2e-05	259.81	259.81	259.81	0	0	1	-360	360;
	321	410	0.00949867	0.0711307	2e-05	259.81	259.81	259.81	0	0	1	-360	360;
	321	410	0.00949867	0.0711307	2e-05	259.81	259.81	259.81	0	0	1	-360	360;
	323	424	0.0128075	0.0395679	1e-05	259.81	259.81	259.81	0	0	1	-360	360;
	323	424	0.0128075	0.0395679	1e-05	259.81	259.81	259.81	0	0	1	-360	360;
	324	423	0.0126135	0.0401606	1e-05	259.81	259.81	259.81	0	0	1	-360	360;
	324	508	0.01562	0.049733	1e-05	259.81	259.81	259.81	0	0	1	-360	360;
	325	449	0.0128019	0.0664199	2e-05	259.81	259.81	259.81	0	0	1	-360	360;
	326	368	0.0263167	0.0837905	2e-05	259.81	259.81	259.81	0	0	1	-360	360;
	326	404	0.0307779	0.0979948	2e-05	259.81	259.81	259.81	0	0	1	-360	360;
	327	417	0.00379946	0.0117382	0	259.81	259.81	259.81	0	0	1	-360	360;
	327	417	0.00379946	0.0117382	0	259.81	259.81	259.81	0	0	1	-360	360;
	327	479	0.0193225	0.0615215	1e-05	259.81	259.81	259.81	0	0	1	-360	360;
	328	484	0.00342293	0.0146939	0	259.81	259.81	259.81	0	0	1	-360	360;
...
];

%% bus names
mpc.bus_name = {
	'Bus/ADIJAYA ';
	'AEK KANOPAN ';
	'-/ASAHAN    ';
	'Bus/AUR DURI';
	'Bus/Arun    ';
	'BAGAN BATU  ';
	'BAGAN SIAPI-';
	'BALAI PUNGUT';
	'BANG KINANG ';
	'Bus/BANGKO  ';
	'BANGKO_275kV';
	'BATU SANGKAR';
	'Bus/BATURAJA';
	'Bus/BATUTEGI';
	'-/BB        ';
	'-/BB        ';
	'-/BB        ';
	'-/BB        ';
	'-/BB        ';
	'-/BB        ';
	'-/BB        ';
	'-/BB        ';
	'-/BB        ';
	'-/BB        ';
	'-/BB        ';
	'-/BB        ';
	'-/BB        ';
	'-/BB        ';
	'-/BB        ';
	'-/BB        ';
	'-/BB        ';
	'-/BB        ';
	'-/BB        ';
	'-/BB        ';
	'-/BB        ';
	'-/BB        ';
	'-/BB        ';
	'-/BB        ';
	'-/BB        ';
	'-/BB        ';
	'-/BB        ';
	'-/BB        ';
	'-/BB        ';
	'-/BB        ';
	'-/BB        ';
	'-/BB        ';
	'-/BB        ';
	'-/BB        ';
	'-/BB        ';
	'-/BB        ';
	'-/BB        ';
	'-/BB        ';
	'-/BB        ';
	'-/BB        ';
	'-/BB        ';
	'-/BB        ';
	'-/BB        ';
	'-/BB        ';
	'-/BB        ';
	'-/BB        ';
	'-/BB        ';
	'-/BB        ';
	'-/BB        ';
	'-/BB        ';
	'-/BB        ';
	'-/BB        ';
	'-/BB        ';
	'-/BB        ';
	'-/BB        ';
	'-/BB        ';
	'-/BB        ';
	'-/BB        ';
	'-/BB        ';
	'-/BB        ';
	'-/BB        ';
	'-/BB        ';
	'-/BB        ';
	'-/BB        ';
	'-/BB        ';
	'-/BB        ';
	'-/BB        ';
	'-/BB        ';
	'-/BB        ';
	'-/BB        ';
	'-/BB        ';
	'-/BB        ';
	'-/BB        ';
	'-/BB        ';
	'-/BB        ';
	'-/BB        ';
	'-/BB        ';
	'-/BB        ';
	'-/BB        ';
	'-/BB        ';
	'-/BB        ';
	'-/BB        ';
	'-/BB        ';
	'-/BB        ';
	'-/BB        ';
	'-/BB        ';
	'-/BB        ';
	'-/BB        ';
	'-/BB        ';
	'-/BB        ';
	'-/BB        ';
	'-/BB        ';
	'-/BB        ';
	'-/BB        ';
	'-/BB        ';
	'-/BB        ';
	'-/BB        ';
	'-/BB        ';
	'-/BB        ';
	'-/BB        ';
	'-/BB        ';
	'-/BB        ';
	'-/BB        ';
	'-/BB        ';
	'-/BB        ';
	'-/BB        ';
	'-/BB        ';
	'-/BB        ';
	'-/BB        ';
	'-/BB        ';
	'-/BB        ';
	'-/BB        ';
	'-/BB        ';
	'-/BB        ';
	'-/BB        ';
	'-/BB        ';
	'-/BB        ';
	'-/BB        ';
	'-/BB        ';
	'-/BB        ';
	'-/BB        ';
	'-/BB        ';
	'-/BB        ';
	'-/BB        ';
	'-/BB        ';
	'-/BB        ';
	'-/BB        ';
	'-/BB        ';
	'-/BB        ';
	'-/BB        ';
	'-/BB        ';
	'-/BB        ';
	'-/BB        ';
	'-/BB        ';
	'-/BB        ';
	'-/BB        ';
	'-/BB        ';
	'-/BB        ';
	'-/BB        ';
	'-/BB        ';
	'-/BB        ';
	'-/BB        ';
	'-/BB        ';
	'-/BB        ';
	'-/BB        ';
	'-/BB        ';
	'-/BB        ';
	'-/BB        ';
	'-/BB        ';
	'-/BB        ';
	'-/BB        ';
	'-/BB        ';
	'-/BB        ';
	'-/BB        ';
	'-/BB        ';
	'-/BB        ';
	'-/BB        ';
	'-/BB        ';
	'-/BB        ';
	'-/BB        ';
	'-/BB        ';
	'-/BB        ';
	'-/BB        ';
	'-/BB        ';
	'-/BB        ';
	'-/BB        ';
	'Single Bu/BB';
	'Single Bu/BB';
	'Single Bu/BB';
	'Single Bu/BB';
	'Single Bu/BB';
	'Single Bu/BB';
	'Single Bu/BB';
	'Single Bu/BB';
	'Single Bu/BB';
	'Single Bu/BB';
	'Single Bu/BB';
	'Single Bu/BB';
	'Single Bu/BB';
	'Single Bu/BB';
	'Single Bu/BB';
	'Single Bu/BB';
	'Single Bu/BB';
	'Single Bu/BB';
	'Single Bu/BB';
	'Single Bu/BB';
	'Single Bu/BB';
	'Single Bu/BB';
	'Single Bu/BB';
	'Single Bu/BB';
	'Single Bu/BB';
	'Single Bu/BB';
	'Single Bu/BB';
	'Single Bu/BB';
	'Single Bu/BB';
	'Single Bu/BB';
	'Single Bu/BB';
	'Single Bu/BB';
	'Single Bu/BB';
	'Single Bu/BB';
	'Single Bu/BB';
	'Single Bu/BB';
	'Single Bu/BB';
	'Single Bu/BB';
	'Single Bu/BB';
	'Single Bu/BB';
	'Single Bu/BB';
	'Single Bu/BB';
	'Single Bu/BB';
	'Single Bu/BB';
	'Single Bu/BB';
	'Single Bu/BB';
	'Single Bu/BB';
	'Single Bu/BB';
	'Single Bu/BB';
	'Single Bu/BB';
	'Single Bu/BB';
	'Single Bu/BB';
	'Single Bu/BB';
	'Single Bu/BB';
	'Single Bu/BB';
	'Single Bu/BB';
	'Single Bu/BB';
	'Single Bu/BB';
	'Single Bu/BB';
	'Single Bu/BB';
	'Single Bu/BB';
	'Single Bu/BB';
	'Single Bu/BB';
	'Single Bu/BB';
	'Single Bu/BB';
	'Single Bu/BB';
	'Single Bu/BB';
	'Single Bu/BB';
	'Single Bu/BB';
	'Single Bu/BB';
	'Single Bu/BB';
	'Single Bu/BB';
	'Single Bu/BB';
	'Single Bu/BB';
	'Single Bu/BB';
	'Single Bu/BB';
	'Single Bu/BB';
	'Single Bu/BB';
	'Single Bu/BB';
	'Single Bu/BB';
	'Single Bu/BB';
	'Single Bu/BB';
	'Single Bu/BB';
	'Single Bu/BB';
	'Single Bu/BB';
	'Single Bu/BB';
	'Single Bu/BB';
	'Single Bu/BB';
	'Single Bu/BB';
	'Single Bu/BB';
	'Single Bu/BB';
	'Single Bu/BB';
	'Single Bu/BB';
	'Single Bu/BB';
	'Single Bu/BB';
	'Single Bu/BB';
	'Bus/BB(1)   ';
	'Bus/BESAI   ';
	'BETUNG_150kV';
	'BETUNG_275kV';
	'BLAMBANGAN U';
	'BOOM BARU   ';
	'Bus/BORANG  ';
	'BORANG_150kV';
	'Bus/BRASTAGI';
	'BUKIT ASAM  ';
	'BUKIT KEMUNI';
	'BUKIT SIGUNT';
	'Bus/BUNGARAN';
	'Bus/BUNGUS  ';
	'Banda Aceh  ';
	'Belawan 1   ';
	'Belawan 2   ';
	'Bus/Binjai  ';
	'Binjai_275kV';
	'Bus/Bireun  ';
	'Blang Pidie ';
	'Bus PLTU Sum';
	'Bus Sigli   ';
	'Bus/DENAI   ';
	'DENTE TELADA';
	'Bus/DIPASENA';
	'DOLOK SANGGU';
	'Bus/DUMAI   ';
	'Bus/DURI    ';
	'Bus/G. TUA  ';
	'GALANG_150kV';
	'GALANG_275kV';
	'Bus/GANDUS  ';
	'GARUDA SAKTI';
	'Bus/GIS KOTA';
	'GIS LISTRIK ';
	'GIS OMBILIN ';
	'GIS SEMEN BA';
	'GIS SIMPANG ';
	'GITET SUMSEL';
	'Bus/GLUGUR  ';
	'Bus/GUMAWANG';
	'GUMAWANG_275';
	'GUNUNG MEGAN';
	'GUNUNG PARA ';
	'Bus/HASANG  ';
	'Bus/IDIE    ';
	'Bus/INDARUNG';
	'JATI AGUNG  ';
	'Bus/Jantho  ';
	'Bus/KALIANDA';
	'Bus/KAMBANG ';
	'KAYU AGUNG  ';
	'Bus/KENTEN  ';
	'KERAMASAN_15';
	'KERAMASAN_70';
	'Bus/KETAPANG';
	'Bus/KID     ';
	'KILIRANJAO_1';
	'KILIRANJAO_2';
	'Bus/KIM     ';
	'Bus/KISARAN ';
	'Bus/KOBAR   ';
	'KOTA AGUNG  ';
	'KOTA PINANG ';
	'Bus/KOTABUMI';
	'Bus/KOTIM   ';
	'KOTIM_70kV  ';
	'KOTO PANJANG';
	'KUALA NAMU  ';
	'KUALA TANJUN';
	'KUALA TUNGKA';
	'Bus/KUTACANE';
	'Krueng Raya ';
	'Bus/L. BILIK';
	'LABUHAN ANGI';
	'LAHAT_150kV ';
	'LAHAT_275kV ';
	'LANDING POIN';
	'LANGKAPURA  ';
	'Bus/LIWA    ';
	'LUBUK ALUNG ';
	'LUBUK LINGGA';
	'LUBUK LINGGA';
	'LUMUT BALAI_';
	'LUMUT BALAI_';
	'Bus/Labuhan ';
	'Bus/Lamhotma';
	'Bus/Langsa  ';
	'Lhokseumawe ';
	'Bus/MANINJAU';
	'Bus/MANNA   ';
	'Bus/MARIANA ';
	'Bus/MARTABE ';
	'MARTAPURA   ';
	'Bus/MENGGALA';
	'Bus/MESUJI  ';
	'Bus/METRO   ';
	'MUARA BULIAN';
	'MUARA BUNGO ';
	'MUARA BUNGO_';
	'MUARA DUA   ';
	'MUARA ENIM_2';
	'MUARA ENIM_5';
	'MUARA LABUH ';
	'MUARA SABAK ';
	'MUARA TEBO  ';
	'MUKO-MUKO   ';
	'Bus/MUSI    ';
	'Bus/Mabar   ';
	'Bus/Meulaboh';
	'NAMORAMBE   ';
	'Bus/NATAR   ';
	'NEGERI DOLOK';
	'NEW AURDURI_';
	'NEW AURDURI_';
	'NEW AURDURI_';
	'Bus/NEW GS  ';
	'NEW JAKABARI';
	'NEW PADANG S';
	'NEW PADANG S';
	'NEW TARAHAN ';
	'Nagan Raya  ';
	'P. KERINCI  ';
	'Bus/P. LABU ';
	'PADANG LUAR ';
	'PADANG PANJA';
	'PADANG SIDEM';
	'PAGAR ALAM  ';
	'PAGELARAN   ';
	'PAKUAN RATU ';
	'PANGURURAN  ';
	'PANYABUNGAN ';
	'Bus/PARIAMAN';
	'Bus/PASAMAN ';
	'PASIR PENGAR';
	'PASIR PUTIH ';
	'PAUH LIMO   ';
	'PAYAKUMBUH_1';
	'PAYAKUMBUH_2';
	'PAYO SELINCA';
	'PEKALONGAN_1';
	'PEKALONGAN_7';
	'PEMATANG SIA';
	'Bus/PENDOPO ';
	'PERAWANG_150';
	'PERAWANG_275';
	'PERBAUNGAN  ';
	'Bus/PIP     ';
	'PLTA AIR PUT';
	'PLTA SEMANGK';
	'PLTG Borang ';
	'PLTP LUMUT B';
	'PLTP MUARA L';
	'PLTP RANTAU ';
	'PLTU BANJAR ';
	'PLTU BENGKUL';
	'PLTU KB AGUN';
	'PLTU S BELIM';
	'PLTU SUMSEL ';
	'Bus/PORSEA  ';
	'PRABUMULIH  ';
	'Bus/PRANAP  ';
	'PULAU BAAI  ';
	'Pangkalan Br';
	'Pangkalan Su';
	'Paya Geli   ';
	'Paya Pasir  ';
	'Peusangan   ';
	'RANTAU PRAPA';
	'Bus/RENGAT  ';
	'Bus/RENUN   ';
	'Bus/RIAU    ';
	'Bus/SALAK   ';
	'SAROLANGUN  ';
	'SARULLA_150k';
	'SARULLA_275k';
	'Bus/SEBALANG';
	'SEDUDUK PUTI';
	'SEI ROTAN   ';
	'Bus/SEKAYU  ';
	'Bus/SELAYANG';
	'SEPUTIH BANY';
	'Bus/SIAK    ';
	'Bus/SIBOLGA ';
	'Bus/SIBUHUAN';
	'SIDIKALANG  ';
	'SIDOMULYO   ';
	'SIEMPAT RUBE';
	'SIMANGKOK_15';
	'SIMANGKOK_27';
	'SIMPANG EMPA';
	'SIMPANG TIGA';
	'SING KARAK  ';
	'SING KARAK P';
	'Bus/SINGKIL ';
	'SIPAN SIHAPO';
	'SIPAN SIHAPO';
	'Bus/SMGP    ';
	'Bus/SOLOK   ';
	'SRI MANGKE  ';
	'SRIBAWONO   ';
	'SUBULUSSALAM';
	'SUKAMERINDU ';
	'Bus/SUKARAME';
	'SUNGAI GELAM';
	'SUNGAI JUARO';
	'SUNGAI KEDUK';
	'SUNGAI LILIN';
	'SUNGAI LILIN';
	'SUNGAI PENUH';
	'SUNGAI RUMBA';
	'SUNGAI RUMBA';
	'Bus/SUTAMI  ';
	'Samalanga   ';
	'Bus/T. PURA ';
	'TALANG DUKU ';
	'TALANG KELAP';
	'TALANG RATU ';
	'TANJUNG API-';
	'TANJUNG BALA';
	'Bus/TAPAN   ';
	'Bus/TARAHAN ';
	'Bus/TARUTUNG';
	'TEBING TINGG';
	'TEGINENENG  ';
	'Bus/TELE    ';
	'TELUK BETUNG';
	'TELUK KUANTA';
	'TELUK LEMBU ';
	'TELUK SIRIH ';
	'TEMBILAHAN  ';
	'Bus/TENAYAN ';
	'Bus/TES     ';
	'TITI KUNING ';
	'Bus/Takengon';
	'Tanjung Mora';
	'Tualang Cut ';
	'Bus/ULUBELU ';
	'Ulee Kareng ';
	'Ulee Kareng ';
	'Ulee Kareng ';
	'Bus/WAMPU   ';
	'Bus/WINA    ';
};


